Circuit: * C:\Users\Marc\OneDrive - Vrije Universiteit Brussel\Semester 2\Master thesis\Data-driven paper_v3\real system\Circuit files\circuit.asc

Early termination of direct N-R iteration.
Direct Newton iteration failed to find .op point.  (Use ".option noopiter" to skip.)
Starting Gmin stepping
Gmin = 10
vernier = 0.5
vernier = 0.25
vernier = 0.125
Gmin = 5.6588
vernier = 0.0625
vernier = 0.03125
vernier = 0.015625
Gmin = 5.48561
vernier = 0.0078125
vernier = 0.00390625
vernier = 0.00195313
vernier = 0.000976563
Gmin = 5.49362
vernier = 0.000488281
Gmin = 0
Gmin stepping failed

Starting source stepping with srcstepmethod=0
Source Step = 3.0303%
Source Step = 33.3333%
Source Step = 63.6364%
Source Step = 93.9394%
Source stepping succeeded in finding the operating point.


Date: Mon Aug 10 15:24:45 2020
Total elapsed time: 6.905 seconds.

tnom = 27
temp = 27
method = modified trap
totiter = 8128
traniter = 6490
tranpoints = 2404
accept = 1944
rejected = 460
matrix size = 169
fillins = 3030
solver = Normal
Thread vector: 78.0/48.6[2] 9.1/10.2[1] 13.3/34.3[1] 6.8/9.3[1]  2592/500
Matrix Compiler1: 773.64 KB object code size  309.7/139.0/[65.9]
Matrix Compiler2: 66.64 KB object code size  38.0/22.3/[21.6]

